
THERMO                                                                          
   300.000  1000.000  5000.000                                                  
E                 L02/67E  1.0  0.0  0.0  0.G   300.000  5000.000      0.00000 1
 0.25000000E 01     0.00000000     0.00000000     0.00000000     0.00000000    2
-0.74537496E 03-0.11734026E 02 0.25000000E 01     0.00000000     0.00000000    3
     0.00000000     0.00000000-0.74537500E 03-0.11734026E 02     0.00000000    4
AL                J 6/79AL 1.   0.   0.   0.G   300.000  5000.000     26.98154 1
 0.25561389E 01-0.10072150E-03 0.68901481E-07-0.20503307E-10 0.22331058E-14    2
 0.38899208E 05 0.52516077E 01 0.28588767E 01-0.16963453E-02 0.32120695E-05    3
-0.27578166E-08 0.88926440E-12 0.38853482E 05 0.38750889E 01     0.00000000    4
AL+               J 6/79AL 1.E -1.   0.   0.G   300.000  5000.000     26.98154 1
 0.25078778E 01-0.17718291E-04 0.13696497E-07-0.43266360E-11 0.48066244E-15    2
 0.10713754E 06 0.37356724E 01 0.24948978E 01 0.38124702E-04-0.99507420E-07    3
 0.10964185E-09-0.43146931E-13 0.10714056E 06 0.37990113E 01     0.00000000    4
AL-               J 6/79AL 1.E  1.   0.   0.G   300.000  5000.000     26.98154 1
 0.20396369E 01 0.83502844E-03-0.33224315E-06 0.54948566E-10-0.33528088E-14    2
 0.33916449E 05 0.84890118E 01 0.26297902E 01-0.43426365E-03 0.34020091E-06    3
 0.20861285E-09-0.15032237E-12 0.33727771E 05 0.53309683E 01     0.00000000    4
ALBO2             J 6/66AL 1.B  1.O  2.   0.G   300.000  5000.000     69.79034 1
 0.71722995E 01 0.29780741E-02-0.12431107E-05 0.23188779E-09-0.16041208E-13    2
-0.67683682E 05-0.99949242E 01 0.23087234E 01 0.18890539E-01-0.20633348E-04    3
 0.10251324E-07-0.16941283E-11-0.66482167E 05 0.14463834E 02     0.00000000    4
ALBR              J 9/79AL 1.BR 1.   0.   0.G   300.000  5000.000    106.88554 1
 0.43822424E 01 0.21200707E-03-0.70764447E-07 0.10659018E-10 0.14830266E-15    2
 0.57616849E 03 0.37259456E 01 0.34900611E 01 0.45476797E-02-0.81935578E-05    3
 0.68666152E-08-0.21765058E-11 0.72945306E 03 0.78734846E 01     0.00000000    4
ALBR3             J 9/79AL 1.BR 3.   0.   0.G   300.000  5000.000    266.69354 1
 0.96150590E 01 0.44468546E-03-0.19902983E-06 0.39251818E-10-0.28427975E-14    2
-0.52349544E 05-0.13132272E 02 0.62537206E 01 0.16080217E-01-0.28659758E-04    3
 0.23616076E-07-0.73931314E-11-0.51735211E 05 0.26704951E 01     0.00000000    4
ALC               J 6/63AL 1.C  1.   0.   0.G   300.000  5000.000     38.99254 1
 0.41564478E 01 0.44692490E-03-0.17467040E-06 0.34304336E-10-0.24772706E-14    2
 0.81606605E 05 0.28915623E 01 0.26422483E 01 0.64465161E-02-0.95892376E-05    3
 0.69040805E-08-0.19430779E-11 0.81929874E 05 0.10254199E 02     0.00000000    4
ALCL              J 9/79AL 1.CL 1.   0.   0.G   300.000  5000.000     62.43454 1
 0.43395271E 01 0.24838874E-03-0.82921852E-07 0.12342319E-10-0.23755818E-16    2
-0.75281081E 04 0.25241385E 01 0.31222286E 01 0.59280474E-02-0.10415832E-04    3
 0.85551065E-08-0.26722380E-11-0.73075839E 04 0.82402004E 01     0.00000000    4
ALCL+             J 6/76AL 1.CL 1.E -1.   0.G   300.000  5000.000     62.43454 1
 0.46284965E 01-0.34750535E-03 0.22997351E-06-0.24279798E-10-0.26440544E-15    2
 0.10220447E 06 0.14172573E 01 0.28698352E 01 0.66534586E-02-0.11327707E-04    3
 0.90702974E-08-0.27794640E-11 0.10259741E 06 0.10006810E 02     0.00000000    4
ALCLF             J 6/76AL 1.CL 1.F  1.   0.G   300.000  5000.000     81.43294 1
 0.64262622E 01 0.67861168E-03-0.31186392E-06 0.62142379E-10-0.42519573E-14    2
-0.60938769E 05-0.30754283E 01 0.32175968E 01 0.14524549E-01-0.23922488E-04    3
 0.18621609E-07-0.55903667E-11-0.60305508E 05 0.12258661E 02     0.00000000    4
ALCLF+            J 6/76AL 1.CL 1.F  1.E -1.G   300.000  5000.000     81.43294 1
 0.68835905E 01 0.70509366E-03-0.31366088E-06 0.61607310E-10-0.44490537E-14    2
 0.31005990E 05-0.84952610E 01 0.37341292E 01 0.13889043E-01-0.22222539E-04    3
 0.16937683E-07-0.50061342E-11 0.31647755E 05 0.66560000E 01     0.00000000    4
ALCLF2            J 6/76AL 1.CL 1.F  2.   0.G   300.000  5000.000    100.43135 1
 0.88674544E 01 0.12933319E-02-0.57468796E-06 0.11278419E-09-0.81398154E-14    2
-0.12309250E 06-0.15613943E 02 0.34905245E 01 0.23410622E-01-0.36730802E-04    3
 0.27577485E-07-0.80570874E-11-0.12197857E 06 0.10346676E 02     0.00000000    4
ALCL2             J 6/76AL 1.CL 2.   0.   0.G   300.000  5000.000     97.88754 1
 0.66414133E 01 0.43391907E-03-0.20342456E-06 0.40900135E-10-0.27209375E-14    2
-0.35794689E 05-0.33615928E 01 0.39336741E 01 0.12928918E-01-0.22767992E-04    3
 0.18605515E-07-0.57900279E-11-0.35296619E 05 0.93887130E 01     0.00000000    4
ALCL2+            J 6/76AL 1.CL 2.E -1.   0.G   300.000  5000.000     97.88754 1
 0.70954577E 01 0.46525470E-03-0.20766479E-06 0.40879906E-10-0.29568914E-14    2
 0.55643775E 05-0.85312440E 01 0.43561128E 01 0.12640612E-01-0.21554060E-04    3
 0.17222753E-07-0.52744473E-11 0.56169736E 05 0.44799020E 01     0.00000000    4
ALCL2-            J 6/76AL 1.CL 2.E  1.   0.G   300.000  5000.000     97.88754 1
 0.67125618E 01 0.34656836E-03-0.15884354E-06 0.29950063E-10-0.16544815E-14    2
-0.59954257E 05-0.41494913E 01 0.42510946E 01 0.11968562E-01-0.21538229E-04    3
 0.17869230E-07-0.56220753E-11-0.59513061E 05 0.73800997E 01     0.00000000    4
ALCL2F            J 6/76AL 1.CL 2.F  1.   0.G   300.000  5000.000    116.88594 1
 0.91476067E 01 0.97669159E-03-0.43488676E-06 0.85464075E-10-0.61739474E-14    2
-0.98060287E 05-0.15392275E 02 0.42551664E 01 0.22016789E-01-0.36276986E-04    3
 0.28274842E-07-0.85011095E-11-0.97088887E 05 0.80117323E 01     0.00000000    4
ALCL3             J 9/79AL 1.CL 3.   0.   0.G   300.000  5000.000    133.34054 1
 0.94041083E 01 0.68641872E-03-0.30663850E-06 0.60391509E-10-0.43693574E-14    2
-0.73285813E 05-0.16309536E 02 0.49132665E 01 0.21031864E-01-0.36546931E-04    3
 0.29586812E-07-0.91451005E-11-0.72441056E 05 0.49298432E 01     0.00000000    4
ALF               J 9/79AL 1.F  1.   0.   0.G   300.000  5000.000     45.97994 1
 0.41261395E 01 0.46268054E-03-0.17477733E-06 0.30015484E-10-0.15328841E-14    2
-0.33275938E 05 0.20532443E 01 0.26472925E 01 0.60822686E-02-0.85963429E-05    3
 0.58979837E-08-0.15886765E-11-0.32949260E 05 0.93007493E 01     0.00000000    4
ALF+              J 6/76AL 1.F  1.E -1.   0.G   300.000  5000.000     45.97994 1
 0.33522186E 01 0.13103867E-02-0.14318383E-06-0.45442330E-10 0.73420749E-14    2
 0.82232500E 05 0.70705631E 01 0.27253053E 01 0.48120313E-02-0.54411719E-05    3
 0.27439084E-08-0.35875192E-12 0.82250468E 05 0.97102158E 01     0.00000000    4
ALF2              J 6/76AL 1.F  2.   0.   0.G   300.000  5000.000     64.97835 1
 0.61579300E 01 0.98132287E-03-0.44535028E-06 0.88205960E-10-0.61262255E-14    2
-0.85566479E 05-0.39643551E 01 0.27408465E 01 0.14466745E-01-0.21520619E-04    3
 0.15411989E-07-0.43229797E-11-0.84834594E 05 0.12663519E 02     0.00000000    4
ALF2+             J 6/76AL 1.F  2.E -1.   0.G   300.000  5000.000     64.97835 1
 0.65925394E 01 0.10319489E-02-0.45739440E-06 0.89620599E-10-0.64609825E-14    2
 0.88991943E 04-0.94728478E 01 0.31239176E 01 0.14523056E-01-0.21315443E-04    3
 0.15156133E-07-0.42374096E-11 0.96545072E 04 0.74610263E 01     0.00000000    4
ALF2-             J 6/76AL 1.F  2.E  1.   0.G   300.000  5000.000     64.97835 1
 0.62666745E 01 0.83711172E-03-0.36840021E-06 0.70150477E-10-0.46876298E-14    2
-0.11125290E 06-0.50343553E 01 0.26715350E 01 0.15601944E-01-0.24419322E-04    3
 0.18253169E-07-0.53064775E-11-0.11050860E 06 0.12325058E 02     0.00000000    4
ALF2O             J 6/76AL 1.F  2.O  1.   0.G   300.000  5000.000     80.97775 1
 0.88205622E 01 0.12548694E-02-0.54524465E-06 0.12036860E-09-0.96483599E-14    2
-0.13630668E 06-0.16056035E 02 0.30874090E 01 0.23833239E-01-0.36062983E-04    3
 0.26268919E-07-0.74856760E-11-0.13506540E 06 0.11880509E 02     0.00000000    4
ALF2O-            J 6/76AL 1.F  2.O  1.E  1.G   300.000  5000.000     80.97775 1
 0.86142786E 01 0.15784596E-02-0.70029115E-06 0.13729212E-09-0.99013985E-14    2
-0.16040336E 06-0.15892424E 02 0.29197597E 01 0.24094013E-01-0.36080944E-04    3
 0.26067848E-07-0.73808379E-11-0.15918152E 06 0.11817909E 02     0.00000000    4
ALF3              J 9/79AL 1.F  3.   0.   0.G   300.000  5000.000     83.97675 1
 0.85986716E 01 0.15955387E-02-0.70767256E-06 0.13871321E-09-0.10002543E-13    2
-0.14833804E 06-0.16768970E 02 0.29697450E 01 0.23711358E-01-0.35236197E-04    3
 0.25294001E-07-0.71236594E-11-0.14712360E 06 0.10656037E 02     0.00000000    4
ALF4-             J 6/76AL 1.F  4.E  1.   0.G   300.000  5000.000    102.97515 1
 0.11471451E 02 0.17525786E-02-0.78064227E-06 0.15344474E-09-0.11086374E-13    2
-0.24336036E 06-0.31211246E 02 0.25878593E 01 0.39930441E-01-0.65736914E-04    3
 0.51163055E-07-0.15358695E-10-0.24159649E 06 0.11288406E 02     0.00000000    4
ALH               J 6/63AL 1.H  1.   0.   0.G   300.000  5000.000     27.98944 1
 0.33366898E 01 0.12877864E-02-0.49869941E-06 0.92294633E-10-0.63451694E-14    2
 0.30091761E 05 0.30823232E 01 0.36576857E 01-0.19744698E-02 0.68663398E-05    3
-0.62041404E-08 0.18663103E-11 0.30146458E 05 0.20753460E 01     0.00000000    4
ALI               J 9/64AL 1.I  1.   0.   0.G   300.000  5000.000    153.88604 1
 0.44377746E 01 0.13030717E-03-0.30880745E-07 0.59579173E-11-0.42264200E-15    2
 0.58492433E 04 0.44447849E 01 0.38508049E 01 0.26700615E-02-0.42157993E-05    3
 0.30809695E-08-0.84329986E-12 0.59611314E 04 0.72378489E 01     0.00000000    4
ALI3              J 9/79AL 1.I  3.   0.   0.G   300.000  5000.000    407.69504 1
 0.97092496E 01 0.33664692E-03-0.15094854E-06 0.29813158E-10-0.21617994E-14    2
-0.26233996E 05-0.10677157E 02 0.69761298E 01 0.13212778E-01-0.23829073E-04    3
 0.19796393E-07-0.62336276E-11-0.25741585E 05 0.21345045E 01     0.00000000    4
ALN               J12/79AL 1.N  1.   0.   0.G   300.000  5000.000     40.98824 1
 0.41450468E 01 0.48560962E-03-0.20126409E-06 0.41259488E-10-0.28854308E-14    2
 0.61583240E 05 0.35691786E 01 0.26448650E 01 0.65416876E-02-0.98625339E-05    3
 0.71882323E-08-0.20444845E-11 0.61897382E 05 0.10834700E 02     0.00000000    4
ALO               J12/79AL 1.O  1.   0.   0.G   300.000  5000.000     42.98094 1
 0.33139064E 01 0.10452421E-02 0.27485533E-06-0.17928606E-09 0.19987813E-13    2
 0.70943336E 04 0.71964713E 01 0.28116103E 01 0.39584261E-02-0.33695304E-05    3
 0.67330497E-09 0.40089455E-12 0.70655037E 04 0.91957946E 01     0.00000000    4
ALO+              J12/79AL 1.O  1.E -1.   0.G   300.000  5000.000     42.98094 1
 0.41908467E 01 0.69358198E-03-0.34459999E-06 0.76172327E-10-0.59032400E-14    2
 0.11807439E 06 0.35163760E 01 0.29414434E 01 0.52592168E-02-0.73439073E-05    3
 0.53316783E-08-0.15783336E-11 0.11837469E 06 0.97222387E 01     0.00000000    4
ALO-              J12/79AL 1.O  1.E  1.   0.G   300.000  5000.000     42.98094 1
 0.40380555E 01 0.55837110E-03-0.21888665E-06 0.38533024E-10-0.21095550E-14    2
-0.33710089E 05 0.22316245E 01 0.27226754E 01 0.49475518E-02-0.57571754E-05    3
 0.31424400E-08-0.64152832E-12-0.33391296E 05 0.88231317E 01     0.00000000    4
ALOCL             J 9/64AL 1.O  1.CL 1.   0.G   300.000  5000.000     78.43394 1
 0.67805200E 01 0.79662822E-03-0.34233355E-06 0.65022648E-10-0.45519197E-14    2
-0.44080832E 05-0.93132976E 01 0.32444409E 01 0.14117005E-01-0.19322038E-04    3
 0.11962798E-07-0.27069180E-11-0.43312343E 05 0.79922149E 01     0.00000000    4
ALOF              J12/75AL 1.O  1.F  1.   0.G   300.000  5000.000     61.97934 1
 0.64521622E 01 0.11926595E-02-0.52893137E-06 0.10367811E-09-0.74765367E-14    2
-0.72116363E 05-0.90312909E 01 0.20391461E 01 0.18948762E-01-0.28978770E-04    3
 0.21360941E-07-0.61579873E-11-0.71182333E 05 0.12373435E 02     0.00000000    4
ALOH              J12/67AL 1.O  1.H  1.0  0.G   300.000  5000.000     43.98884 1
 0.36860674E 01 0.33636822E-02-0.12466244E-05 0.21382205E-09-0.13898319E-13    2
-0.23046105E 05 0.36769913E 01 0.26132211E 01 0.27716894E-02 0.74157830E-05    3
-0.11354602E-07 0.45569559E-11-0.22586797E 05 0.10062166E 02     0.00000000    4
ALOH+             J12/67AL 1.O  1.H  1.E -1.G   300.000  5000.000     43.98884 1
 0.41501987E 01 0.28925212E-02-0.10565414E-05 0.17945167E-09-0.11587014E-13    2
 0.63892888E 05 0.26269925E 01 0.19603439E 01 0.79191140E-02-0.22857959E-05    3
-0.40103789E-08 0.25707596E-11 0.64510185E 05 0.14093032E 02     0.00000000    4
ALOH-             J12/67AL 1.O  1.H  1.E  1.G   300.000  5000.000     43.98884 1
 0.43010718E 01 0.21668503E-02-0.73988645E-06 0.11821055E-09-0.72208841E-14    2
-0.29134095E 05 0.35138246E 01 0.29130204E 01 0.59530715E-02-0.30558054E-05    3
-0.12598709E-08 0.12886094E-11-0.28781827E 05 0.10609284E 02     0.00000000    4
ALO2              J12/79AL 1.O  2.   0.   0.G   300.000  5000.000     58.98034 1
 0.66064641E 01 0.10802252E-02-0.52229344E-06 0.11324220E-09-0.85290968E-14    2
-0.12532432E 05-0.80303388E 01 0.32545148E 01 0.14275844E-01-0.21103248E-04    3
 0.15056259E-07-0.42142614E-11-0.11812582E 05 0.82893920E 01     0.00000000    4
ALO2-             J12/79AL 1.O  2.E  1.   0.G   300.000  5000.000     58.98034 1
 0.63687482E 01 0.12792030E-02-0.56503991E-06 0.11046379E-09-0.79512442E-14    2
-0.60972009E 05-0.88119719E 01 0.30812038E 01 0.13039654E-01-0.17119922E-04    3
 0.10978700E-07-0.27942120E-11-0.60206203E 05 0.74883900E 01     0.00000000    4
ALO2H             J12/68AL 1.O  2.H  1.0  0.G   300.000  5000.000     59.98824 1
 0.64264346E 01 0.32230362E-02-0.12139348E-05 0.21074500E-09-0.13828000E-13    2
-0.57626154E 05-0.74707565E 01 0.24800456E 01 0.16149264E-01-0.16033524E-04    3
 0.64466166E-08-0.40994769E-12-0.56682759E 05 0.12293907E 02     0.00000000    4
ALS               J 3/64AL 1.S  1.   0.   0.G   300.000  5000.000     59.04154 1
 0.42661464E 01 0.31643469E-03-0.12006842E-06 0.23641371E-10-0.17103888E-14    2
 0.22816928E 05 0.31975625E 01 0.27758306E 01 0.68223962E-02-0.11337040E-04    3
 0.89235320E-08-0.27002748E-11 0.23107994E 05 0.10302835E 02     0.00000000    4
AL2               J 6/79AL 2.   0.   0.   0.G   300.000  5000.000     53.96308 1
 0.58158062E 01-0.13250537E-02 0.60751886E-06-0.10692419E-09 0.70611409E-14    2
 0.56789047E 05-0.49678735E 01 0.18094481E 01 0.15936502E-01-0.27250258E-04    3
 0.19871120E-07-0.53684046E-11 0.57531134E 05 0.14058918E 02     0.00000000    4
AL2BR6            J 9/79AL 2.BR 6.   0.   0.G   300.000  5000.000    533.38708 1
 0.21274331E 02 0.83939635E-03-0.37594778E-06 0.74170110E-10-0.53728551E-14    2
-0.11929325E 06-0.56119983E 02 0.14185979E 02 0.34452506E-01-0.62522437E-04    3
 0.52173238E-07-0.16482709E-10-0.11802525E 06-0.22942269E 02     0.00000000    4
AL2CL6            J 9/79AL 2.CL 6.   0.   0.G   300.000  5000.000    266.68108 1
 0.20794003E 02 0.13914247E-02-0.62213671E-06 0.12259377E-09-0.88727585E-14    2
-0.16240472E 06-0.62486341E 02 0.10509198E 02 0.49077436E-01-0.87208726E-04    3
 0.71723432E-07-0.22424328E-10-0.16051784E 06-0.14097220E 02     0.00000000    4
AL2F6             J 9/79AL 2.F  6.   0.   0.G   300.000  5000.000    167.95350 1
 0.18829846E 02 0.36202230E-02-0.16085552E-05 0.31566252E-09-0.22780287E-13    2
-0.32315110E 06-0.63253242E 02 0.31618118E 01 0.68898890E-01-0.10965860E-03    3
 0.83293342E-07-0.24561049E-10-0.31994248E 06 0.12199401E 02     0.00000000    4
AL2I6             J 9/79AL 2.I  6.   0.   0.G   300.000  5000.000    815.39008 1
 0.21503191E 02 0.57594193E-03-0.25839028E-06 0.51045977E-10-0.37017738E-14    2
-0.65449131E 05-0.51179229E 02 0.16225498E 02 0.25938439E-01-0.47642352E-04    3
 0.40083685E-07-0.12737184E-10-0.64519497E 05-0.26553577E 02     0.00000000    4
AL2O              J12/79AL 2.O  1.   0.   0.G   300.000  5000.000     69.96248 1
 0.67720627E 01 0.82550092E-03-0.36291001E-06 0.69531300E-10-0.47345211E-14    2
-0.19643197E 05-0.87854942E 01 0.40732656E 01 0.11307613E-01-0.16565162E-04    3
 0.11784284E-07-0.33005503E-11-0.19054230E 05 0.43951854E 01     0.00000000    4
AL2O+             J12/79AL 2.O  1.E -1.   0.G   300.000  5000.000     69.96248 1
 0.68797855E 01 0.70749877E-03-0.31419244E-06 0.61640983E-10-0.44478698E-14    2
 0.76270756E 05-0.83449656E 01 0.41045736E 01 0.11978351E-01-0.18522589E-04    3
 0.13756691E-07-0.39867423E-11 0.76852703E 05 0.50894213E 01     0.00000000    4
AL2O2             J12/79AL 2.O  2.   0.   0.G   300.000  5000.000     85.96188 1
 0.91590976E 01 0.96853927E-03-0.43258513E-06 0.85178840E-10-0.61615370E-14    2
-0.50428059E 05-0.19169631E 02 0.27596411E 01 0.29997599E-01-0.52190497E-04    3
 0.42282686E-07-0.13075360E-10-0.49226032E 05 0.11087609E 02     0.00000000    4
AL2O2+            J12/79AL 2.O  2.E -1.   0.G   300.000  5000.000     85.96188 1
 0.92751693E 01 0.83587223E-03-0.37361608E-06 0.73605168E-10-0.53262794E-14    2
 0.65264068E 05-0.18690412E 02 0.33421904E 01 0.28111249E-01-0.49547178E-04    3
 0.40509752E-07-0.12610310E-10 0.66362506E 05 0.92770883E 01     0.00000000    4
AR                L10/85AR 1.   0.   0.   0.G   298.150  5000.000     39.94800 1
 0.25000000E 01     0.00000000     0.00000000     0.00000000     0.00000000    2
-0.74537500E 03 0.43664742E 01 0.25000000E 01     0.00000000     0.00000000    3
     0.00000000     0.00000000-0.74537500E 03 0.43664742E 01     0.00000000    4
AR+               L12/66AR 1.E -1.   0.   0.G   300.000  5000.000     39.94800 1
 0.28420672E 01-0.87648603E-04-0.26463209E-07 0.12240311E-10-0.11885139E-14    2
 0.18272563E 06 0.36720201E 01 0.24857001E 01-0.55682660E-03 0.33194849E-05    3
-0.39236795E-08 0.14143279E-11 0.18290215E 06 0.58880154E 01     0.00000000    4
B                 J 3/79B  1.   0.   0.   0.G   300.000  5000.000     10.81000 1
 0.25041200E 01-0.97027862E-05 0.83537930E-08-0.30709702E-11 0.40778879E-15    2
 0.66585617E 05 0.41755861E 01 0.25029061E 01-0.62230312E-05-0.15814776E-08    3
 0.11737923E-10-0.67317162E-14 0.66586129E 05 0.41823077E 01     0.00000000    4
B+                J 3/79B  1.E -1.   0.   0.G   300.000  5000.000     10.81000 1
 0.25085032E 01-0.18807277E-04 0.14275946E-07-0.44660200E-11 0.49413485E-15    2
 0.16359144E 06 0.23601131E 01 0.25000004E 01-0.31078154E-08 0.83216099E-11    3
-0.94278282E-14 0.38108041E-17 0.16359428E 06 0.24058152E 01     0.00000000    4
B-                J 3/79B  1.E  1.   0.   0.G   300.000  5000.000     10.81000 1
 0.23744222E 01 0.82811304E-04 0.10402726E-06-0.40088793E-10 0.38012658E-14    2
 0.62666994E 05 0.53520118E 01 0.25119870E 01-0.20719353E-04-0.17593334E-07    3
 0.22162226E-10 0.29136695E-13 0.62601105E 05 0.45390045E 01     0.00000000    4
BCL               J12/64B  1.CL 1.   0.   0.G   300.000  5000.000     46.26300 1
 0.41020571E 01 0.48659193E-03-0.18864326E-06 0.35833342E-10-0.25099069E-14    2
 0.15687958E 05 0.19420655E 01 0.28364463E 01 0.44368812E-02-0.43887522E-05    3
 0.15161078E-08 0.32646195E-13 0.16001361E 05 0.83321464E 01     0.00000000    4
BCL+              J 6/68B  1.CL 1.E -1.0  0.G   300.000  5000.000     46.26300 1
 0.41060888E 01 0.47274170E-03-0.17928584E-06 0.32416137E-10-0.20545758E-14    2
 0.14713097E 06 0.26295615E 01 0.28124197E 01 0.46006392E-02-0.48119962E-05    3
 0.19672216E-08-0.13837802E-12 0.14744849E 06 0.91435145E 01     0.00000000    4
BCLF              J12/64B  1.CL 1.F  1.   0.G   300.000  5000.000     65.26140 1
 0.57076757E 01 0.14100203E-02-0.60114137E-06 0.11367044E-09-0.79368063E-14    2
-0.39693327E 05-0.15482176E 01 0.33120234E 01 0.74198763E-02-0.43485949E-05    3
-0.11374057E-08 0.13763890E-11-0.39017548E 05 0.10935177E 02     0.00000000    4
BCL2              J 6/72B  1.CL 2.   0.   0.G   300.000  5000.000     81.71600 1
 0.64459838E 01 0.57927948E-03-0.26049705E-06 0.63596358E-10-0.53982215E-14    2
-0.11661304E 05-0.44740401E 01 0.32974786E 01 0.12082576E-01-0.16123755E-04    3
 0.96265856E-08-0.20599199E-11-0.10956537E 05 0.11029363E 02     0.00000000    4
BCL2+             J12/70B  1.CL 2.E -1.0  0.G   300.000  5000.000     81.71600 1
 0.69266627E 01 0.67777633E-03-0.32101496E-06 0.68344422E-10-0.50073592E-14    2
 0.78857822E 05-0.89477869E 01 0.42704931E 01 0.10603791E-01-0.14229838E-04    3
 0.85372831E-08-0.18349671E-11 0.79436016E 05 0.40632904E 01     0.00000000    4
BCL2-             J 6/72B  1.CL 2.E  1.   0.G   300.000  5000.000     81.71600 1
 0.63518218E 01 0.77028848E-03-0.44699863E-06 0.13831178E-09-0.13221995E-13    2
-0.19705432E 05-0.47879011E 01 0.32358791E 01 0.11690219E-01-0.14778259E-04    3
 0.82181546E-08-0.15657913E-11-0.18981815E 05 0.10676830E 02     0.00000000    4
BCL3              J12/64B  1.CL 3.   0.   0.G   300.000  5000.000    117.16900 1
 0.85985380E 01 0.15531923E-02-0.67000602E-06 0.12789112E-09-0.90000059E-14    2
-0.51357071E 05-0.15171594E 02 0.37395265E 01 0.18105813E-01-0.21340461E-04    3
 0.10828335E-07-0.17325967E-11-0.50214609E 05 0.90399632E 01     0.00000000    4
BF                J12/64B  1.F  1.   0.   0.G   300.000  5000.000     29.80840 1
 0.35771888E 01 0.10192908E-02-0.41251564E-06 0.77196438E-10-0.53498741E-14    2
-0.15127264E 05 0.32529088E 01 0.34613609E 01-0.95685468E-03 0.60135744E-05    3
-0.64978057E-08 0.22355349E-11-0.14969820E 05 0.44475660E 01     0.00000000    4
BF2               J 6/72B  1.F  2.   0.   0.G   300.000  5000.000     48.80681 1
 0.54447457E 01 0.17533211E-02-0.78444474E-06 0.15719859E-09-0.11311071E-13    2
-0.72860367E 05-0.22865127E 01 0.30309303E 01 0.72411021E-02-0.28250919E-05    3
-0.28920413E-08 0.20046102E-11-0.72151102E 05 0.10432510E 02     0.00000000    4
BF2+              J12/70B  1.F  2.E -1.0  0.G   300.000  5000.000     48.80681 1
 0.58127638E 01 0.18193424E-02-0.77103457E-06 0.14489782E-09-0.99809156E-14    2
 0.36794801E 05-0.70174886E 01 0.33146474E 01 0.86443654E-02-0.67525396E-05    3
 0.13383665E-08 0.45114910E-12 0.37483649E 05 0.58915131E 01     0.00000000    4
BF2-              J 6/72B  1.F  2.E  1.   0.G   300.000  5000.000     48.80681 1
 0.53100348E 01 0.20020439E-02-0.97235510E-06 0.21641443E-09-0.16640881E-13    2
-0.98336928E 05-0.23409714E 01 0.31424581E 01 0.64104579E-02-0.12386461E-05    3
-0.41220100E-08 0.23472367E-11-0.97672964E 05 0.92120217E 01     0.00000000    4
BF3               J 6/69B  1.F  3.0  0.0  0.G   300.000  5000.000     67.80521 1
 0.70241985E 01 0.32221559E-02-0.13705154E-05 0.25919671E-09-0.18122310E-13    2
-0.13918072E 06-0.11197486E 02 0.24468244E 01 0.15276312E-01-0.10784617E-04    3
 0.68907502E-09 0.14893187E-11-0.13790135E 06 0.12554636E 02     0.00000000    4
BH                J12/64B  1.H  1.   0.   0.G   300.000  5000.000     11.81790 1
 0.28919079E 01 0.15832946E-02-0.58261729E-06 0.10242068E-09-0.67669569E-14    2
 0.52328714E 05 0.37829483E 01 0.36862206E 01-0.13055435E-02 0.26742105E-05    3
-0.91073738E-09-0.15591136E-12 0.52176330E 05-0.68540385E-01     0.00000000    4
BHF2              J12/65B  1.H  1.F  2.   0.G   300.000  5000.000     49.81471 1
 0.53184527E 01 0.47444466E-02-0.19337858E-05 0.35508382E-09-0.24293667E-13    2
-0.90375012E 05-0.30563344E 01 0.24053602E 01 0.92755844E-02 0.13386461E-05    3
-0.86807895E-08 0.41211015E-11-0.89388409E 05 0.12874850E 02     0.00000000    4
BH2               J12/64B  1.H  2.   0.   0.G   300.000  5000.000     12.82580 1
 0.33625285E 01 0.39012854E-02-0.15097551E-05 0.26672805E-09-0.17713053E-13    2
 0.22919028E 05 0.12459933E 01 0.23958282E 01 0.74776260E-02-0.72019514E-05    3
 0.45826398E-08-0.12510680E-11 0.23162650E 05 0.60631811E 01     0.00000000    4
BH3               J12/64B  1.H  3.   0.   0.G   300.000  5000.000     13.83370 1
 0.20621726E 01 0.72655895E-02-0.27510337E-05 0.47803709E-09-0.31334285E-13    2
 0.11923753E 05 0.88361664E 01 0.39487033E 01-0.52170543E-03 0.76481164E-05    3
-0.46148694E-08 0.56318616E-12 0.11618809E 05-0.58801882E-01     0.00000000    4
BN                J 6/66B  1.N  1.   0.   0.G   300.000  5000.000     24.81670 1
 0.35981832E 01 0.87176805E-03-0.29972644E-06 0.56036944E-10-0.40750421E-14    2
 0.56171241E 05 0.45869994E 01 0.35375065E 01-0.13556586E-02 0.62214189E-05    3
-0.61683269E-08 0.19872461E-11 0.56329743E 05 0.55499509E 01     0.00000000    4
BO                J 6/68B  1.O  1.0  0.0  0.G   300.000  5000.000     26.80940 1
 0.31564956E 01 0.13816589E-02-0.55049630E-06 0.99116678E-10-0.64164546E-14    2
-0.10303422E 04 0.60242706E 01 0.37297250E 01-0.20878324E-02 0.57362849E-05    3
-0.43894828E-08 0.10916632E-11-0.10618859E 04 0.36123221E 01     0.00000000    4
BOCL              J 3/65B  1.O  1.CL 1.   0.G   300.000  5000.000     62.26240 1
 0.57135566E 01 0.18664689E-02-0.77487898E-06 0.14398572E-09-0.99317745E-14    2
-0.39977353E 05-0.48935834E 01 0.32705321E 01 0.10227750E-01-0.12070163E-04    3
 0.72025562E-08-0.16914738E-11-0.39378208E 05 0.73361224E 01     0.00000000    4
BOF               J 3/65B  1.O  1.F  1.   0.G   300.000  5000.000     45.80780 1
 0.52618488E 01 0.23462431E-02-0.97620810E-06 0.18167625E-09-0.12545891E-13    2
-0.74324949E 05-0.40691029E 01 0.27741485E 01 0.93927631E-02-0.79998507E-05    3
 0.27457058E-08-0.11175219E-12-0.73640460E 05 0.87507490E 01     0.00000000    4
BOF2              J12/66B  1.O  1.F  2.   0.G   300.000  5000.000     64.80621 1
 0.73077233E 01 0.29903620E-02-0.13059617E-05 0.25308242E-09-0.17687333E-13    2
-0.10334576E 06-0.11205602E 02 0.17445977E 01 0.18693277E-01-0.15246164E-04    3
 0.26559470E-08 0.13798606E-11-0.10186758E 06 0.17339953E 02     0.00000000    4
BO2               J 6/68B  1.O  2.0  0.0  0.G   300.000  5000.000     42.80880 1
 0.58198434E 01 0.18626574E-02-0.81302797E-06 0.15735821E-09-0.10944238E-13    2
-0.36255117E 05-0.65741060E 01 0.31212048E 01 0.84680883E-02-0.45972278E-05    3
-0.16420021E-08 0.16658233E-11-0.35483307E 05 0.75346936E 01     0.00000000    4
BO2-              J12/68B  1.O  2.E  1.0  0.G   300.000  5000.000     42.80880 1
 0.48805169E 01 0.26743651E-02-0.10932194E-05 0.20080873E-09-0.13717769E-13    2
-0.85284324E 05-0.30224936E 01 0.24916337E 01 0.97470644E-02-0.87640864E-05    3
 0.35802544E-08-0.40611221E-12-0.84641218E 05 0.92136785E 01     0.00000000    4
BS                J 6/72B  1.S  1.   0.   0.G   300.000  5000.000     42.87000 1
 0.37068542E 01 0.98682895E-03-0.47495266E-06 0.10654601E-09-0.80519643E-14    2
 0.28012816E 05 0.44112130E 01 0.31742046E 01 0.98544972E-03 0.27711319E-05    3
-0.43751801E-08 0.17616179E-11 0.28230624E 05 0.75204545E 01     0.00000000    4
B2                J 3/79B  2.   0.   0.   0.G   300.000  5000.000     21.62000 1
 0.51534127E 01-0.42399221E-03 0.12148802E-06-0.10349916E-10 0.13862130E-15    2
 0.98035576E 05-0.55126334E 01 0.23846193E 01 0.46537753E-02 0.27488509E-05    3
-0.97715620E-08 0.48250137E-11 0.98865025E 05 0.92695831E 01     0.00000000    4
B2O               J 6/66B  2.O  1.   0.   0.G   300.000  5000.000     37.61940 1
 0.47300538E 01 0.23941486E-02-0.10008324E-05 0.18697510E-09-0.12953672E-13    2
 0.98853354E 04-0.64909402E 00 0.35294730E 01 0.31993826E-02 0.30329257E-05    3
-0.57491255E-08 0.22847349E-11 0.10363201E 05 0.62263887E 01     0.00000000    4
B2O2              J12/64B  2.O  2.   0.   0.G   300.000  5000.000     53.61880 1
 0.69938574E 01 0.35940393E-02-0.14753611E-05 0.27225124E-09-0.18695996E-13    2
-0.57296178E 05-0.12180996E 02 0.36807078E 01 0.15361132E-01-0.18606097E-04    3
 0.12171451E-07-0.32411018E-11-0.56486647E 05 0.43429084E 01     0.00000000    4
B2O3              J 6/71B  2.O  3.0  0.0  0.G   300.000  5000.000     69.61820 1
 0.83994106E 01 0.47436338E-02-0.19552304E-05 0.36187749E-09-0.24907232E-13    2
-0.10357158E 06-0.15823207E 02 0.36608837E 01 0.20262076E-01-0.21947338E-04    3
 0.12253004E-07-0.27038402E-11-0.10236524E 06 0.80930146E 01     0.00000000    4
B3O3CL3           J 3/65B  3.O  3.CL 3.   0.G   300.000  5000.000    186.78720 1
 0.19282564E 02 0.63172581E-02-0.27242926E-05 0.52047910E-09-0.36677790E-13    2
-0.20320883E 06-0.67898332E 02 0.40444983E 01 0.54260597E-01-0.55750761E-04    3
 0.22223128E-07-0.14181295E-11-0.19941632E 06 0.90435427E 01     0.00000000    4
B3O3F3            J 3/65B  3.O  3.F  3.   0.G   300.000  5000.000    137.42341 1
 0.16858616E 02 0.88685754E-02-0.37881058E-05 0.71870401E-09-0.50376917E-13    2
-0.29093104E 06-0.59871948E 02 0.30798861E 01 0.45636592E-01-0.33098826E-04    3
 0.25538839E-08 0.44358761E-11-0.28712213E 06 0.11462196E 02     0.00000000    4
B3O3H3            J 3/65B  3.O  3.H  3.   0.G   300.000  5000.000     83.45190 1
 0.12524270E 02 0.11480056E-01-0.41199610E-05 0.64911587E-09-0.37177953E-13    2
-0.14856644E 06-0.42096054E 02 0.21709738E 01 0.30249577E-01-0.13234248E-05    3
-0.21937097E-07 0.11336387E-10-0.14515819E 06 0.13939562E 02-0.14321716E 06    4
BA                J12/70BA 1.   0.   0.   0.G   300.000  5000.000    137.33000 1
 0.79730545E 01-0.11161215E-01 0.71172147E-05-0.15336673E-08 0.10876700E-12    2
 0.18889966E 05-0.23500815E 02 0.25038777E 01-0.37803914E-04 0.12914966E-06    3
-0.18400409E-09 0.92934829E-13 0.20792544E 05 0.62036120E 01     0.00000000    4
BABR              J12/74BA 1.BR 1.   0.   0.G   300.000  5000.000    217.23400 1
 0.43689774E 01 0.39075887E-03-0.29901749E-06 0.10641301E-09-0.98416049E-14    2
-0.14617685E 05 0.75121186E 01 0.41714553E 01 0.15960813E-02-0.28886542E-05    3
 0.24767147E-08-0.79830700E-12-0.14594495E 05 0.83730645E 01     0.00000000    4
BABR2             J12/74BA 1.BR 2.   0.   0.G   300.000  5000.000    297.13800 1
 0.69502338E 01 0.58066023E-04-0.26195428E-07 0.51992828E-11-0.37852770E-15    2
-0.53166842E 05 0.14768797E 01 0.63405275E 01 0.30561952E-02-0.57285864E-05    3